Circuit: * D:\Facultad ITBA\Año 5\Cuatrimestre 1\E4\TPs\TP1\TP1.asc

Direct Newton iteration failed to find .op point.  (Use ".option noopiter" to skip.)
Starting Gmin stepping
Gmin = 10
Gmin = 1.07374
Gmin = 0.115292
Gmin = 0.0123794
Gmin = 0.00132923
Gmin = 0.000142725
Gmin = 1.5325e-005
Gmin = 1.6455e-006
Gmin = 1.76685e-007
Gmin = 1.89714e-008
Gmin = 2.03704e-009
Gmin = 2.18725e-010
Gmin = 2.34854e-011
Gmin = 2.52173e-012
Gmin = 2.70769e-013
Gmin = 0
Gmin stepping succeeded in finding the operating point.


Date: Wed Mar 20 11:08:02 2024
Total elapsed time: 1.193 seconds.

tnom = 27
temp = 27
method = modified trap
totiter = 311390
traniter = 311010
tranpoints = 90066
accept = 65794
rejected = 24272
matrix size = 27
fillins = 6
solver = Normal
Matrix Compiler1: 2.08 KB object code size  0.3/0.2/[0.1]
Matrix Compiler2: 2.25 KB object code size  0.2/0.3/[0.2]

