Circuit: * D:\Facultad ITBA\Año 5\Cuatrimestre 1\E4\E4\TP1\Simulaciones\TP1.asc

Direct Newton iteration failed to find .op point.  (Use ".option noopiter" to skip.)
Starting Gmin stepping
Gmin = 10
Gmin = 1.07374
Gmin = 0.115292
Gmin = 0.0123794
Gmin = 0.00132923
Gmin = 0.000142725
Gmin = 1.5325e-005
Gmin = 1.6455e-006
Gmin = 1.76685e-007
Gmin = 1.89714e-008
Gmin = 2.03704e-009
Gmin = 2.18725e-010
Gmin = 2.34854e-011
Gmin = 2.52173e-012
Gmin = 2.70769e-013
Gmin = 0
Gmin stepping succeeded in finding the operating point.


Date: Wed Mar 20 18:19:17 2024
Total elapsed time: 1.142 seconds.

tnom = 27
temp = 27
method = modified trap
totiter = 313244
traniter = 312864
tranpoints = 90630
accept = 65824
rejected = 24806
matrix size = 27
fillins = 6
solver = Normal
Matrix Compiler1: 2.10 KB object code size  0.3/0.2/[0.1]
Matrix Compiler2: off  [0.2]/0.3/0.2

