Circuit: * C:\Users\Nico Bustelo\Desktop\Electronics\0-GitHub\TPs-G1_E4\TP1\Simulaciones\TP1.asc

Direct Newton iteration for .op point succeeded.

Date: Fri Mar 22 19:19:03 2024
Total elapsed time: 1.804 seconds.

tnom = 27
temp = 27
method = modified trap
totiter = 366141
traniter = 366110
tranpoints = 130544
accept = 97190
rejected = 33354
matrix size = 57
fillins = 16
solver = Normal
Matrix Compiler1: 3.93 KB object code size  0.8/0.4/[0.2]
Matrix Compiler2: off  [0.3]/0.6/0.5

