Circuit: * C:\Users\Nico Bustelo\Desktop\Electronics\0-GitHub\TPs-G1_E4\TP1\Simulaciones\TP1.asc

Direct Newton iteration failed to find .op point.  (Use ".option noopiter" to skip.)
Starting Gmin stepping
Gmin = 10
Gmin = 1.07374
Gmin = 0.115292
Gmin = 0.0123794
Gmin = 0.00132923
Gmin = 0.000142725
Gmin = 1.5325e-005
Gmin = 1.6455e-006
Gmin = 1.76685e-007
Gmin = 1.89714e-008
Gmin = 2.03704e-009
Gmin = 2.18725e-010
Gmin = 2.34854e-011
Gmin = 2.52173e-012
Gmin = 2.70769e-013
Gmin = 0
Gmin stepping succeeded in finding the operating point.


Date: Thu Mar 21 23:32:22 2024
Total elapsed time: 2.165 seconds.

tnom = 27
temp = 27
method = modified trap
totiter = 436194
traniter = 435737
tranpoints = 154146
accept = 113253
rejected = 40893
matrix size = 72
fillins = 26
solver = Normal
Matrix Compiler1: 5.66 KB object code size  0.7/0.4/[0.2]
Matrix Compiler2: 6.12 KB object code size  0.3/0.6/[0.3]

